# created with PyMOL 2.4.1
@<TRIPOS>MOLECULE
5F19
4 3 1                   
SMALL
USER_CHARGES
@<TRIPOS>ATOM
1	  C1	7.366	11.723	50.697	C.3	1	EDO615	0.000	
2	  O1	7.234	13.097	51.080	O.3	1	EDO615	0.000	
3	  C2	8.661	11.528	49.919	C.3	1	EDO615	0.000	
4	  O2	8.744	10.177	49.454	O.3	1	EDO615	0.000	
@<TRIPOS>BOND
1 1 2 1
2 1 3 1
3 3 4 1
@<TRIPOS>SUBSTRUCTURE
1	EDO615	1	GROUP	1 A	EDO
