# created with PyMOL 2.4.1
@<TRIPOS>MOLECULE
C5H12O
18 16 1                 
SMALL
USER_CHARGES
@<TRIPOS>ATOM
1	   C1	-0.362	0.000	-3.632	C.3	1	UNL1	-0.630	
2	   C2	-0.362	0.000	-2.102	C.3	1	UNL1	-0.630	
3	   C3	-2.672	0.000	-1.074	C.2	1	UNL1	0.680	
4	   C4	-2.672	1.293	-0.275	C.3	1	UNL1	-0.290	
5	   C5	-2.672	-1.293	-0.275	C.3	1	UNL1	-0.290	
6	   O1	-2.672	0.000	-2.290	O.2	1	UNL1	-0.557	
7	   H1	-0.362	1.020	-4.031	 H	1	UNL1	0.210	
8	   H2	0.521	-0.510	-4.031	 H	1	UNL1	0.210	
9	   H3	-1.245	-0.510	-4.031	 H	1	UNL1	0.210	
10	   H4	-1.245	0.510	-1.702	 H	1	UNL1	0.210	
11	   H5	-0.362	-1.020	-1.702	 H	1	UNL1	0.210	
12	   H6	0.521	0.510	-1.702	 H	1	UNL1	0.210	
13	   H7	-2.672	2.146	-0.954	 H	1	UNL1	0.076	
14	   H8	-2.672	-2.146	-0.954	 H	1	UNL1	0.076	
15	   H9	-1.792	1.340	0.377	 H	1	UNL1	0.076	
16	   H10	-3.552	1.340	0.377	 H	1	UNL1	0.076	
17	   H11	-3.552	-1.340	0.377	 H	1	UNL1	0.076	
18	   H12	-1.792	-1.340	0.377	 H	1	UNL1	0.076	
@<TRIPOS>BOND
1 1 2 1
2 2 10 1
3 2 11 1
4 2 12 1
5 3 4 1
6 3 5 1
7 4 15 1
8 4 16 1
9 5 17 1
10 5 18 1
11 3 6 2
12 1 7 1
13 1 8 1
14 1 9 1
15 4 13 1
16 5 14 1
@<TRIPOS>SUBSTRUCTURE
1	UNL1	1	GROUP	1 ****	UNL
