# created with PyMOL 2.4.1
@<TRIPOS>MOLECULE
5F19
14 14 1                 
SMALL
USER_CHARGES
@<TRIPOS>ATOM
1	  C1	26.981	11.650	71.512	C.3	1	NAG606	-0.2899	
2	  C2	27.995	11.510	72.645	C.3	1	NAG606	0.0762	
3	  N2	29.343	11.781	72.171	N.pl3	1	NAG606	0.0762	
4	  C3	27.911	10.114	73.255	C.3	1	NAG606	0.0762	
5	  O3	28.773	10.035	74.385	O.3	1	NAG606	0.6798	
6	  C4	26.479	9.798	73.669	C.3	1	NAG606	-0.5572	
7	  O4	26.383	8.444	74.095	O.3	1	NAG606	-0.2899	
8	  C5	25.528	10.021	72.496	C.3	1	NAG606	0.0762	
9	  O5	25.668	11.362	72.004	O.3	1	NAG606	0.0762	
10	  C6	24.075	9.843	72.870	C.3	1	NAG606	0.0762	
11	  O6	23.212	10.294	71.835	O.3	1	NAG606	-0.8471
12	  C7	30.237	12.485	72.872	C.2	1	NAG606	0.2899	
13	  O7	29.974	12.954	73.975	O.2	1	NAG606	0.2899	
14	  C8	31.579	12.668	72.230	C.3	1	NAG606	0.2899	
@<TRIPOS>BOND
1 1 2 1
2 1 9 1
3 2 3 1
4 2 4 1
5 4 5 1
6 4 6 1
7 6 7 1
8 6 8 1
9 8 9 1
10 8 10 1
11 10 11 1
12 3 12 1
13 12 13 2
14 12 14 1
@<TRIPOS>SUBSTRUCTURE
1	NAG606	1	GROUP	1 A	NAG
